simulator lang=spectre
include "modn.scs"
