// Generated for: spectre
// Generated on: Oct 26 17:24:23 2010
// Design library name: sigmadelta_local
// Design cell name: test_v_uni_v_uni
// Design view name: schematic
simulator lang=spectre
global 0
include "/home/ic5.1/tools/dfII/samples/artist/ahdlLib/quantity.spectre"
