// Generated for: spectre
// Generated on: Oct 28 17:18:57 2010
// Design library name: sigmadelta_local
// Design cell name: test_i_uni_v_diff
// Design view name: schematic
simulator lang=spectre
global 0
include "/home/ic5.1/tools/dfII/samples/artist/ahdlLib/quantity.spectre"
