simulator lang=spectre
include "modn.scs"
include "modp.scs"
